/*--------------------------------*- C++ -*----------------------------------*\
  =========                 |
  \\      /  F ield         | OpenFOAM: The Open Source CFD Toolbox
   \\    /   O peration     | Website:  https://openfoam.org
    \\  /    A nd           | Version:  10
     \\/     M anipulation  |
\*---------------------------------------------------------------------------*/
FoamFile
{
    format      ascii;
    class       polyBoundaryMesh;
    location    "constant/polyMesh";
    object      boundary;
}
// * * * * * * * * * * * * * * * * * * * * * * * * * * * * * * * * * * * * * //

11
(
    front
    {
        type            cyclic;
        inGroups        List<word> 1(cyclic);
        nFaces          248;
        startFace       25067;
        matchTolerance  0.0001;
        neighbourPatch  Back;
        transformType   translational;
        separation      (0 0 -300);
    }
    Back
    {
        type            cyclic;
        inGroups        List<word> 1(cyclic);
        nFaces          248;
        startFace       25315;
        matchTolerance  0.0001;
        neighbourPatch  front;
        transformType   translational;
        separation      (0 0 300);
    }
    inlet
    {
        type            patch;
        nFaces          518;
        startFace       25563;
    }
    outlet
    {
        type            patch;
        nFaces          240;
        startFace       26081;
    }
    upperPatch
    {
        type            patch;
        nFaces          400;
        startFace       26321;
    }
    ground
    {
        type            wall;
        inGroups        List<word> 
2
(
groundGroup
wall
)
;
        nFaces          572;
        startFace       26721;
    }
    procBoundary0to1
    {
        type            processor;
        inGroups        List<word> 1(processor);
        nFaces          310;
        startFace       27293;
        matchTolerance  0.0001;
        myProcNo        0;
        neighbProcNo    1;
    }
    procBoundary0to2
    {
        type            processor;
        inGroups        List<word> 1(processor);
        nFaces          467;
        startFace       27603;
        matchTolerance  0.0001;
        myProcNo        0;
        neighbProcNo    2;
    }
    procBoundary0to3
    {
        type            processor;
        inGroups        List<word> 1(processor);
        nFaces          87;
        startFace       28070;
        matchTolerance  0.0001;
        myProcNo        0;
        neighbProcNo    3;
    }
    procBoundary0to4
    {
        type            processor;
        inGroups        List<word> 1(processor);
        nFaces          76;
        startFace       28157;
        matchTolerance  0.0001;
        myProcNo        0;
        neighbProcNo    4;
    }
    procBoundary0to5
    {
        type            processor;
        inGroups        List<word> 1(processor);
        nFaces          74;
        startFace       28233;
        matchTolerance  0.0001;
        myProcNo        0;
        neighbProcNo    5;
    }
)

// ************************************************************************* //
