/*--------------------------------*- C++ -*----------------------------------*\
  =========                 |
  \\      /  F ield         | OpenFOAM: The Open Source CFD Toolbox
   \\    /   O peration     | Website:  https://openfoam.org
    \\  /    A nd           | Version:  10
     \\/     M anipulation  |
\*---------------------------------------------------------------------------*/
FoamFile
{
    format      ascii;
    class       featureEdgeMesh;
    location    "constant/geometry";
    object      ground.eMesh;
}
// * * * * * * * * * * * * * * * * * * * * * * * * * * * * * * * * * * * * * //


// points:

1479
(
(122 9.1 300)
(-50 -9.7 300)
(122 9.1 0)
(-50 -9.7 0)
(240 -5.64 300)
(240 -5.64 0)
(-50 -9.7 29)
(-50 -9.7 28)
(95 11.68 300)
(94 11.43 300)
(240 -5.64 260)
(240 -5.64 261)
(-49 -9.68 0)
(-48 -9.65 0)
(-50 -9.7 16)
(-50 -9.7 15)
(-16 -9.34 0)
(-15 -9.32 0)
(-50 -9.7 108)
(-50 -9.7 107)
(-50 -9.7 273)
(-50 -9.7 272)
(-50 -9.7 294)
(-50 -9.7 293)
(25 -7.96 300)
(24 -8.01 300)
(74 8.57 300)
(73 8.47 300)
(111 11.01 300)
(110 11.17 300)
(144 1.77 300)
(143 2.16 300)
(230 -5.76 300)
(229 -5.65 300)
(240 -5.64 225)
(240 -5.64 226)
(240 -5.64 159)
(240 -5.64 160)
(144 1.77 0)
(145 1.39 0)
(-50 -9.7 7)
(-50 -9.7 6)
(-19 -9.4 0)
(-18 -9.38 0)
(-13 -9.26 0)
(-12 -9.23 0)
(-14 -9.3 0)
(-50 -9.7 40)
(-50 -9.7 39)
(36 -7.3 0)
(37 -7.18 0)
(90 10.63 0)
(91 10.79 0)
(-50 -9.7 80)
(-50 -9.7 79)
(-50 -9.7 133)
(-50 -9.7 132)
(-50 -9.7 153)
(-50 -9.7 152)
(-50 -9.7 155)
(-50 -9.7 154)
(-50 -9.7 156)
(-50 -9.7 180)
(-50 -9.7 179)
(-50 -9.7 238)
(-50 -9.7 237)
(-50 -9.7 266)
(-50 -9.7 265)
(-50 -9.7 288)
(-50 -9.7 287)
(-50 -9.7 291)
(-50 -9.7 290)
(15 -8.4 300)
(14 -8.44 300)
(190 -4.07 300)
(189 -4.01 300)
(167 -2 300)
(166 -1.95 300)
(216 -4.19 300)
(215 -4.25 300)
(218 -4.17 300)
(217 -4.13 300)
(240 -5.64 247)
(240 -5.64 248)
(240 -5.64 203)
(240 -5.64 204)
(240 -5.64 167)
(240 -5.64 168)
(240 -5.64 148)
(240 -5.64 149)
(240 -5.64 126)
(240 -5.64 127)
(156 -1.75 0)
(157 -1.76 0)
(165 -1.91 0)
(166 -1.95 0)
(240 -5.64 39)
(240 -5.64 40)
(-50 -9.7 3)
(-50 -9.7 2)
(-46 -9.62 0)
(-45 -9.6 0)
(-50 -9.7 8)
(-50 -9.7 12)
(-50 -9.7 11)
(-39 -9.47 0)
(-38 -9.45 0)
(-36 -9.4 0)
(-35 -9.38 0)
(-37 -9.43 0)
(-34 -9.36 0)
(-31 -9.3 0)
(-30 -9.28 0)
(-22 -9.29 0)
(-21 -9.33 0)
(-50 -9.7 27)
(-50 -9.7 51)
(-50 -9.7 50)
(-50 -9.7 53)
(-50 -9.7 52)
(-50 -9.7 54)
(-50 -9.7 55)
(-50 -9.7 63)
(-50 -9.7 62)
(-50 -9.7 72)
(-50 -9.7 71)
(-11 -9.2 0)
(1 -8.88 0)
(2 -8.85 0)
(-4 -9.02 0)
(-3 -8.99 0)
(7 -8.68 0)
(8 -8.65 0)
(5 -8.75 0)
(6 -8.72 0)
(18 -8.28 0)
(19 -8.23 0)
(20 -8.19 0)
(28 -7.82 0)
(29 -7.76 0)
(32 -7.61 0)
(33 -7.52 0)
(30 -7.71 0)
(31 -7.66 0)
(38 -6.88 0)
(39 -6.48 0)
(35 -7.39 0)
(40 -6.21 0)
(44 -6.16 0)
(45 -6.11 0)
(47 -5.83 0)
(48 -5.63 0)
(46 -6 0)
(51 -4.74 0)
(52 -4.36 0)
(55 -3.01 0)
(56 -2.34 0)
(59 -0.15 0)
(60 0.44 0)
(63 2.83 0)
(64 3.53 0)
(79 9.39 0)
(80 9.47 0)
(84 9.98 0)
(85 10.11 0)
(83 9.89 0)
(87 10.31 0)
(88 10.41 0)
(86 10.26 0)
(89 10.54 0)
(-50 -9.7 78)
(-50 -9.7 77)
(-50 -9.7 86)
(-50 -9.7 85)
(-50 -9.7 106)
(-50 -9.7 105)
(-50 -9.7 104)
(-50 -9.7 102)
(-50 -9.7 101)
(-50 -9.7 121)
(-50 -9.7 120)
(-50 -9.7 129)
(-50 -9.7 128)
(-50 -9.7 140)
(-50 -9.7 139)
(-50 -9.7 159)
(-50 -9.7 158)
(-50 -9.7 164)
(-50 -9.7 163)
(-50 -9.7 178)
(-50 -9.7 175)
(-50 -9.7 174)
(-50 -9.7 184)
(-50 -9.7 183)
(-50 -9.7 192)
(-50 -9.7 191)
(-50 -9.7 202)
(-50 -9.7 201)
(-50 -9.7 195)
(-50 -9.7 194)
(-50 -9.7 203)
(-50 -9.7 214)
(-50 -9.7 213)
(-50 -9.7 212)
(-50 -9.7 215)
(-50 -9.7 221)
(-50 -9.7 220)
(-50 -9.7 222)
(-50 -9.7 231)
(-50 -9.7 230)
(-50 -9.7 253)
(-50 -9.7 252)
(-50 -9.7 258)
(-50 -9.7 257)
(-50 -9.7 264)
(-50 -9.7 263)
(-50 -9.7 262)
(-50 -9.7 277)
(-50 -9.7 276)
(-50 -9.7 285)
(-50 -9.7 284)
(-50 -9.7 286)
(-50 -9.7 292)
(-45 -9.6 300)
(-46 -9.62 300)
(-49 -9.68 300)
(-47 -9.64 300)
(-44 -9.58 300)
(-40 -9.49 300)
(-41 -9.51 300)
(-35 -9.38 300)
(-36 -9.4 300)
(-33 -9.34 300)
(-34 -9.36 300)
(-13 -9.26 300)
(-14 -9.3 300)
(2 -8.85 300)
(1 -8.88 300)
(3 -8.82 300)
(9 -8.61 300)
(8 -8.65 300)
(13 -8.48 300)
(12 -8.51 300)
(26 -7.91 300)
(36 -7.3 300)
(35 -7.39 300)
(51 -4.74 300)
(50 -5.08 300)
(68 5.93 300)
(67 5.3 300)
(72 8.24 300)
(76 8.93 300)
(75 8.7 300)
(98 12.02 300)
(97 11.96 300)
(99 11.99 300)
(113 10.56 300)
(112 10.79 300)
(117 9.52 300)
(116 9.72 300)
(123 8.43 300)
(145 1.39 300)
(146 0.69 300)
(152 -1.32 300)
(151 -1.08 300)
(157 -1.76 300)
(156 -1.75 300)
(161 -1.82 300)
(160 -1.88 300)
(180 -2.86 300)
(179 -2.76 300)
(186 -3.73 300)
(185 -3.54 300)
(195 -4.24 300)
(194 -4.13 300)
(201 -4.4 300)
(200 -4.47 300)
(205 -4.33 300)
(204 -4.28 300)
(209 -4.76 300)
(208 -4.55 300)
(214 -4.33 300)
(213 -4.46 300)
(212 -4.66 300)
(219 -4.32 300)
(220 -4.52 300)
(222 -4.86 300)
(221 -4.74 300)
(226 -5.26 300)
(225 -5.07 300)
(234 -6 300)
(233 -5.97 300)
(240 -5.64 288)
(240 -5.64 289)
(240 -5.64 287)
(240 -5.64 281)
(240 -5.64 282)
(240 -5.64 285)
(240 -5.64 286)
(240 -5.64 272)
(240 -5.64 273)
(240 -5.64 268)
(240 -5.64 269)
(240 -5.64 267)
(240 -5.64 251)
(240 -5.64 252)
(240 -5.64 244)
(240 -5.64 245)
(240 -5.64 246)
(240 -5.64 215)
(240 -5.64 216)
(240 -5.64 224)
(240 -5.64 227)
(240 -5.64 228)
(240 -5.64 219)
(240 -5.64 220)
(240 -5.64 217)
(240 -5.64 211)
(240 -5.64 212)
(240 -5.64 214)
(240 -5.64 208)
(240 -5.64 209)
(240 -5.64 196)
(240 -5.64 197)
(240 -5.64 195)
(240 -5.64 194)
(240 -5.64 175)
(240 -5.64 176)
(240 -5.64 178)
(240 -5.64 179)
(240 -5.64 161)
(240 -5.64 162)
(240 -5.64 138)
(240 -5.64 139)
(240 -5.64 137)
(240 -5.64 133)
(240 -5.64 134)
(240 -5.64 136)
(240 -5.64 116)
(240 -5.64 117)
(240 -5.64 118)
(240 -5.64 113)
(240 -5.64 114)
(240 -5.64 112)
(240 -5.64 107)
(240 -5.64 108)
(240 -5.64 101)
(240 -5.64 102)
(240 -5.64 90)
(240 -5.64 91)
(106 11.48 0)
(107 11.36 0)
(108 11.31 0)
(119 9.1 0)
(120 9.05 0)
(121 9.15 0)
(124 8.04 0)
(125 7.84 0)
(127 7.69 0)
(128 7.91 0)
(130 7.93 0)
(131 7.93 0)
(135 6.91 0)
(136 6.46 0)
(134 7.32 0)
(143 2.16 0)
(164 -1.86 0)
(163 -1.82 0)
(178 -2.68 0)
(179 -2.76 0)
(194 -4.13 0)
(195 -4.24 0)
(193 -4.04 0)
(240 -5.64 72)
(240 -5.64 73)
(240 -5.64 74)
(240 -5.64 75)
(240 -5.64 71)
(240 -5.64 70)
(240 -5.64 45)
(240 -5.64 46)
(240 -5.64 27)
(240 -5.64 28)
(240 -5.64 23)
(240 -5.64 24)
(240 -5.64 35)
(240 -5.64 36)
(240 -5.64 26)
(240 -5.64 22)
(215 -4.25 0)
(216 -4.19 0)
(213 -4.46 0)
(214 -4.33 0)
(225 -5.07 0)
(226 -5.26 0)
(240 -5.64 15)
(240 -5.64 16)
(240 -5.64 12)
(240 -5.64 13)
(230 -5.76 0)
(231 -5.81 0)
(235 -6 0)
(236 -5.99 0)
(-50 -9.7 1)
(-50 -9.7 4)
(-47 -9.64 0)
(-44 -9.58 0)
(-43 -9.56 0)
(-42 -9.54 0)
(-41 -9.51 0)
(-50 -9.7 5)
(-50 -9.7 9)
(-50 -9.7 10)
(-50 -9.7 13)
(-50 -9.7 14)
(-50 -9.7 17)
(-50 -9.7 18)
(-40 -9.49 0)
(-33 -9.34 0)
(-32 -9.32 0)
(-29 -9.26 0)
(-28 -9.25 0)
(-27 -9.24 0)
(-26 -9.24 0)
(-25 -9.25 0)
(-24 -9.26 0)
(-23 -9.27 0)
(-20 -9.39 0)
(-17 -9.36 0)
(-50 -9.7 20)
(-50 -9.7 19)
(-50 -9.7 21)
(-50 -9.7 22)
(-50 -9.7 23)
(-50 -9.7 25)
(-50 -9.7 24)
(-50 -9.7 26)
(-50 -9.7 30)
(-50 -9.7 31)
(-50 -9.7 32)
(-50 -9.7 33)
(-50 -9.7 34)
(-50 -9.7 35)
(-50 -9.7 36)
(-50 -9.7 37)
(-50 -9.7 38)
(-50 -9.7 41)
(-50 -9.7 42)
(-50 -9.7 43)
(-50 -9.7 45)
(-50 -9.7 44)
(-50 -9.7 46)
(-50 -9.7 47)
(-50 -9.7 48)
(-50 -9.7 49)
(-50 -9.7 56)
(-50 -9.7 57)
(-50 -9.7 58)
(-50 -9.7 60)
(-50 -9.7 59)
(-50 -9.7 61)
(-50 -9.7 64)
(-50 -9.7 66)
(-50 -9.7 65)
(-50 -9.7 67)
(-50 -9.7 69)
(-50 -9.7 68)
(-50 -9.7 70)
(-50 -9.7 73)
(-50 -9.7 74)
(-50 -9.7 75)
(-10 -9.17 0)
(-9 -9.13 0)
(-8 -9.11 0)
(-7 -9.09 0)
(-6 -9.07 0)
(-5 -9.04 0)
(-2 -8.96 0)
(-1 -8.94 0)
(-0 -8.91 0)
(3 -8.82 0)
(4 -8.78 0)
(9 -8.61 0)
(10 -8.58 0)
(11 -8.55 0)
(12 -8.51 0)
(13 -8.48 0)
(14 -8.44 0)
(15 -8.4 0)
(16 -8.36 0)
(17 -8.32 0)
(21 -8.15 0)
(22 -8.1 0)
(23 -8.06 0)
(24 -8.01 0)
(25 -7.96 0)
(27 -7.87 0)
(26 -7.91 0)
(34 -7.46 0)
(41 -6.35 0)
(42 -6.4 0)
(43 -6.32 0)
(49 -5.37 0)
(50 -5.08 0)
(53 -3.94 0)
(54 -3.5 0)
(57 -1.55 0)
(58 -0.81 0)
(61 0.97 0)
(62 2.05 0)
(65 4.16 0)
(66 4.69 0)
(67 5.3 0)
(68 5.93 0)
(69 6.67 0)
(70 7.38 0)
(71 7.98 0)
(72 8.24 0)
(73 8.47 0)
(74 8.57 0)
(76 8.93 0)
(77 9.09 0)
(75 8.7 0)
(78 9.27 0)
(81 9.6 0)
(82 9.72 0)
(92 11.01 0)
(93 11.23 0)
(95 11.68 0)
(96 11.86 0)
(94 11.43 0)
(-50 -9.7 76)
(-50 -9.7 81)
(-50 -9.7 82)
(-50 -9.7 83)
(-50 -9.7 84)
(-50 -9.7 87)
(-50 -9.7 88)
(-50 -9.7 89)
(-50 -9.7 90)
(-50 -9.7 91)
(-50 -9.7 92)
(-50 -9.7 95)
(-50 -9.7 94)
(-50 -9.7 93)
(-50 -9.7 96)
(-50 -9.7 99)
(-50 -9.7 98)
(-50 -9.7 97)
(-50 -9.7 100)
(-50 -9.7 103)
(-50 -9.7 109)
(-50 -9.7 110)
(-50 -9.7 111)
(-50 -9.7 112)
(-50 -9.7 113)
(-50 -9.7 115)
(-50 -9.7 114)
(-50 -9.7 116)
(-50 -9.7 117)
(-50 -9.7 118)
(-50 -9.7 119)
(-50 -9.7 122)
(-50 -9.7 123)
(-50 -9.7 124)
(-50 -9.7 125)
(-50 -9.7 126)
(-50 -9.7 127)
(-50 -9.7 130)
(-50 -9.7 131)
(-50 -9.7 135)
(-50 -9.7 134)
(-50 -9.7 138)
(-50 -9.7 137)
(-50 -9.7 136)
(-50 -9.7 141)
(-50 -9.7 142)
(-50 -9.7 143)
(-50 -9.7 144)
(-50 -9.7 145)
(-50 -9.7 146)
(-50 -9.7 147)
(-50 -9.7 148)
(-50 -9.7 149)
(-50 -9.7 150)
(-50 -9.7 151)
(-50 -9.7 157)
(-50 -9.7 160)
(-50 -9.7 161)
(-50 -9.7 162)
(-50 -9.7 165)
(-50 -9.7 166)
(-50 -9.7 167)
(-50 -9.7 168)
(-50 -9.7 169)
(-50 -9.7 170)
(-50 -9.7 171)
(-50 -9.7 172)
(-50 -9.7 173)
(-50 -9.7 176)
(-50 -9.7 177)
(-50 -9.7 181)
(-50 -9.7 182)
(-50 -9.7 187)
(-50 -9.7 186)
(-50 -9.7 185)
(-50 -9.7 188)
(-50 -9.7 189)
(-50 -9.7 190)
(-50 -9.7 193)
(-50 -9.7 196)
(-50 -9.7 197)
(-50 -9.7 198)
(-50 -9.7 199)
(-50 -9.7 200)
(-50 -9.7 204)
(-50 -9.7 205)
(-50 -9.7 206)
(-50 -9.7 207)
(-50 -9.7 208)
(-50 -9.7 209)
(-50 -9.7 210)
(-50 -9.7 211)
(-50 -9.7 216)
(-50 -9.7 217)
(-50 -9.7 219)
(-50 -9.7 218)
(-50 -9.7 223)
(-50 -9.7 224)
(-50 -9.7 225)
(-50 -9.7 226)
(-50 -9.7 227)
(-50 -9.7 228)
(-50 -9.7 229)
(-50 -9.7 232)
(-50 -9.7 233)
(-50 -9.7 234)
(-50 -9.7 235)
(-50 -9.7 236)
(-50 -9.7 239)
(-50 -9.7 240)
(-50 -9.7 241)
(-50 -9.7 242)
(-50 -9.7 243)
(-50 -9.7 245)
(-50 -9.7 244)
(-50 -9.7 246)
(-50 -9.7 248)
(-50 -9.7 247)
(-50 -9.7 249)
(-50 -9.7 250)
(-50 -9.7 251)
(-50 -9.7 255)
(-50 -9.7 254)
(-50 -9.7 256)
(-50 -9.7 261)
(-50 -9.7 259)
(-50 -9.7 260)
(-50 -9.7 268)
(-50 -9.7 267)
(-50 -9.7 269)
(-50 -9.7 270)
(-50 -9.7 271)
(-50 -9.7 274)
(-50 -9.7 275)
(-50 -9.7 278)
(-50 -9.7 279)
(-50 -9.7 281)
(-50 -9.7 280)
(-50 -9.7 282)
(-50 -9.7 283)
(-50 -9.7 289)
(-48 -9.65 300)
(-50 -9.7 295)
(-50 -9.7 296)
(-50 -9.7 297)
(-50 -9.7 299)
(-50 -9.7 298)
(-42 -9.54 300)
(-43 -9.56 300)
(-39 -9.47 300)
(-38 -9.45 300)
(-37 -9.43 300)
(-32 -9.32 300)
(-31 -9.3 300)
(-30 -9.28 300)
(-29 -9.26 300)
(-27 -9.24 300)
(-28 -9.25 300)
(-25 -9.25 300)
(-26 -9.24 300)
(-24 -9.26 300)
(-23 -9.27 300)
(-22 -9.29 300)
(-20 -9.39 300)
(-21 -9.33 300)
(-18 -9.38 300)
(-19 -9.4 300)
(-17 -9.36 300)
(-16 -9.34 300)
(-15 -9.32 300)
(-12 -9.23 300)
(-11 -9.2 300)
(-10 -9.17 300)
(-9 -9.13 300)
(-8 -9.11 300)
(-7 -9.09 300)
(-6 -9.07 300)
(-5 -9.04 300)
(-4 -9.02 300)
(-3 -8.99 300)
(-2 -8.96 300)
(-0 -8.91 300)
(-1 -8.94 300)
(4 -8.78 300)
(6 -8.72 300)
(5 -8.75 300)
(7 -8.68 300)
(10 -8.58 300)
(11 -8.55 300)
(16 -8.36 300)
(17 -8.32 300)
(18 -8.28 300)
(19 -8.23 300)
(20 -8.19 300)
(21 -8.15 300)
(22 -8.1 300)
(23 -8.06 300)
(27 -7.87 300)
(29 -7.76 300)
(28 -7.82 300)
(30 -7.71 300)
(31 -7.66 300)
(32 -7.61 300)
(33 -7.52 300)
(34 -7.46 300)
(37 -7.18 300)
(38 -6.88 300)
(39 -6.48 300)
(40 -6.21 300)
(41 -6.35 300)
(42 -6.4 300)
(43 -6.32 300)
(44 -6.16 300)
(45 -6.11 300)
(47 -5.83 300)
(46 -6 300)
(48 -5.63 300)
(49 -5.37 300)
(52 -4.36 300)
(53 -3.94 300)
(54 -3.5 300)
(55 -3.01 300)
(56 -2.34 300)
(57 -1.55 300)
(58 -0.81 300)
(59 -0.15 300)
(60 0.44 300)
(61 0.97 300)
(62 2.05 300)
(63 2.83 300)
(64 3.53 300)
(65 4.16 300)
(66 4.69 300)
(69 6.67 300)
(70 7.38 300)
(71 7.98 300)
(77 9.09 300)
(78 9.27 300)
(79 9.39 300)
(80 9.47 300)
(81 9.6 300)
(82 9.72 300)
(83 9.89 300)
(84 9.98 300)
(85 10.11 300)
(86 10.26 300)
(87 10.31 300)
(88 10.41 300)
(89 10.54 300)
(90 10.63 300)
(91 10.79 300)
(92 11.01 300)
(93 11.23 300)
(96 11.86 300)
(100 11.97 300)
(104 11.69 300)
(103 11.83 300)
(101 12.05 300)
(102 11.96 300)
(105 11.61 300)
(106 11.48 300)
(107 11.36 300)
(108 11.31 300)
(109 11.29 300)
(115 9.96 300)
(114 10.28 300)
(119 9.1 300)
(118 9.31 300)
(120 9.05 300)
(121 9.15 300)
(124 8.04 300)
(125 7.84 300)
(126 7.7 300)
(127 7.69 300)
(128 7.91 300)
(129 7.88 300)
(130 7.93 300)
(131 7.93 300)
(133 7.72 300)
(132 7.96 300)
(135 6.91 300)
(134 7.32 300)
(136 6.46 300)
(137 5.88 300)
(138 5.27 300)
(140 3.81 300)
(139 4.34 300)
(141 3.15 300)
(142 2.63 300)
(147 0.1 300)
(149 -0.44 300)
(148 -0.19 300)
(150 -0.77 300)
(153 -1.58 300)
(154 -1.66 300)
(155 -1.67 300)
(159 -1.87 300)
(158 -1.77 300)
(162 -1.81 300)
(163 -1.82 300)
(164 -1.86 300)
(165 -1.91 300)
(168 -2.07 300)
(169 -2.17 300)
(170 -2.22 300)
(172 -2.33 300)
(171 -2.32 300)
(173 -2.36 300)
(174 -2.38 300)
(176 -2.54 300)
(175 -2.41 300)
(177 -2.65 300)
(178 -2.68 300)
(181 -2.88 300)
(182 -3 300)
(184 -3.17 300)
(183 -3.13 300)
(187 -3.89 300)
(188 -3.94 300)
(191 -4.06 300)
(192 -3.99 300)
(193 -4.04 300)
(196 -4.51 300)
(197 -4.58 300)
(198 -4.67 300)
(199 -4.55 300)
(202 -4.25 300)
(203 -4.27 300)
(206 -4.44 300)
(207 -4.52 300)
(210 -4.88 300)
(211 -4.79 300)
(223 -4.89 300)
(224 -4.91 300)
(227 -5.52 300)
(228 -5.54 300)
(231 -5.81 300)
(232 -5.9 300)
(235 -6 300)
(236 -5.99 300)
(237 -5.87 300)
(238 -5.79 300)
(240 -5.64 297)
(240 -5.64 298)
(239 -5.73 300)
(240 -5.64 299)
(240 -5.64 296)
(240 -5.64 294)
(240 -5.64 295)
(240 -5.64 291)
(240 -5.64 292)
(240 -5.64 293)
(240 -5.64 290)
(240 -5.64 284)
(240 -5.64 283)
(240 -5.64 278)
(240 -5.64 279)
(240 -5.64 280)
(240 -5.64 277)
(240 -5.64 276)
(240 -5.64 274)
(240 -5.64 275)
(240 -5.64 271)
(240 -5.64 270)
(240 -5.64 266)
(240 -5.64 262)
(240 -5.64 265)
(240 -5.64 264)
(240 -5.64 263)
(240 -5.64 259)
(240 -5.64 257)
(240 -5.64 258)
(240 -5.64 254)
(240 -5.64 255)
(240 -5.64 256)
(240 -5.64 253)
(240 -5.64 249)
(240 -5.64 250)
(240 -5.64 243)
(240 -5.64 240)
(240 -5.64 241)
(240 -5.64 242)
(240 -5.64 238)
(240 -5.64 239)
(240 -5.64 235)
(240 -5.64 236)
(240 -5.64 237)
(240 -5.64 230)
(240 -5.64 231)
(240 -5.64 234)
(240 -5.64 233)
(240 -5.64 232)
(240 -5.64 229)
(240 -5.64 223)
(240 -5.64 221)
(240 -5.64 222)
(240 -5.64 218)
(240 -5.64 213)
(240 -5.64 210)
(240 -5.64 206)
(240 -5.64 207)
(240 -5.64 205)
(240 -5.64 202)
(240 -5.64 201)
(240 -5.64 200)
(240 -5.64 198)
(240 -5.64 199)
(240 -5.64 193)
(240 -5.64 191)
(240 -5.64 192)
(240 -5.64 190)
(240 -5.64 189)
(240 -5.64 186)
(240 -5.64 187)
(240 -5.64 188)
(240 -5.64 185)
(240 -5.64 184)
(240 -5.64 182)
(240 -5.64 183)
(240 -5.64 181)
(240 -5.64 180)
(240 -5.64 177)
(240 -5.64 173)
(240 -5.64 174)
(240 -5.64 170)
(240 -5.64 171)
(240 -5.64 172)
(240 -5.64 169)
(240 -5.64 164)
(240 -5.64 165)
(240 -5.64 166)
(240 -5.64 163)
(240 -5.64 158)
(240 -5.64 157)
(240 -5.64 156)
(240 -5.64 155)
(240 -5.64 154)
(240 -5.64 153)
(240 -5.64 151)
(240 -5.64 152)
(240 -5.64 150)
(240 -5.64 147)
(240 -5.64 146)
(240 -5.64 144)
(240 -5.64 145)
(240 -5.64 143)
(240 -5.64 142)
(240 -5.64 141)
(240 -5.64 140)
(240 -5.64 135)
(240 -5.64 132)
(240 -5.64 130)
(240 -5.64 131)
(240 -5.64 128)
(240 -5.64 129)
(240 -5.64 125)
(240 -5.64 123)
(240 -5.64 124)
(240 -5.64 121)
(240 -5.64 122)
(240 -5.64 120)
(240 -5.64 119)
(240 -5.64 115)
(240 -5.64 111)
(240 -5.64 109)
(240 -5.64 110)
(240 -5.64 106)
(240 -5.64 105)
(240 -5.64 103)
(240 -5.64 104)
(240 -5.64 99)
(240 -5.64 100)
(240 -5.64 96)
(240 -5.64 97)
(240 -5.64 98)
(240 -5.64 95)
(240 -5.64 94)
(240 -5.64 92)
(240 -5.64 93)
(240 -5.64 89)
(240 -5.64 88)
(240 -5.64 87)
(240 -5.64 86)
(240 -5.64 85)
(240 -5.64 82)
(240 -5.64 83)
(240 -5.64 84)
(240 -5.64 81)
(240 -5.64 80)
(240 -5.64 77)
(240 -5.64 78)
(240 -5.64 79)
(240 -5.64 76)
(97 11.96 0)
(98 12.02 0)
(99 11.99 0)
(100 11.97 0)
(101 12.05 0)
(102 11.96 0)
(103 11.83 0)
(104 11.69 0)
(105 11.61 0)
(109 11.29 0)
(110 11.17 0)
(111 11.01 0)
(112 10.79 0)
(113 10.56 0)
(114 10.28 0)
(115 9.96 0)
(116 9.72 0)
(117 9.52 0)
(118 9.31 0)
(123 8.43 0)
(126 7.7 0)
(129 7.88 0)
(132 7.96 0)
(133 7.72 0)
(138 5.27 0)
(139 4.34 0)
(137 5.88 0)
(140 3.81 0)
(141 3.15 0)
(142 2.63 0)
(146 0.69 0)
(147 0.1 0)
(148 -0.19 0)
(149 -0.44 0)
(150 -0.77 0)
(151 -1.08 0)
(152 -1.32 0)
(153 -1.58 0)
(154 -1.66 0)
(155 -1.67 0)
(158 -1.77 0)
(159 -1.87 0)
(160 -1.88 0)
(161 -1.82 0)
(162 -1.81 0)
(167 -2 0)
(168 -2.07 0)
(169 -2.17 0)
(170 -2.22 0)
(171 -2.32 0)
(172 -2.33 0)
(173 -2.36 0)
(174 -2.38 0)
(175 -2.41 0)
(176 -2.54 0)
(177 -2.65 0)
(180 -2.86 0)
(181 -2.88 0)
(182 -3 0)
(183 -3.13 0)
(184 -3.17 0)
(185 -3.54 0)
(186 -3.73 0)
(187 -3.89 0)
(188 -3.94 0)
(189 -4.01 0)
(190 -4.07 0)
(191 -4.06 0)
(192 -3.99 0)
(196 -4.51 0)
(197 -4.58 0)
(198 -4.67 0)
(199 -4.55 0)
(201 -4.4 0)
(202 -4.25 0)
(200 -4.47 0)
(203 -4.27 0)
(204 -4.28 0)
(240 -5.64 69)
(240 -5.64 68)
(240 -5.64 67)
(240 -5.64 66)
(240 -5.64 61)
(240 -5.64 62)
(240 -5.64 65)
(240 -5.64 64)
(240 -5.64 58)
(240 -5.64 59)
(240 -5.64 63)
(240 -5.64 60)
(240 -5.64 57)
(240 -5.64 55)
(240 -5.64 56)
(240 -5.64 52)
(240 -5.64 53)
(240 -5.64 54)
(240 -5.64 51)
(240 -5.64 50)
(240 -5.64 48)
(240 -5.64 49)
(240 -5.64 47)
(240 -5.64 43)
(240 -5.64 44)
(240 -5.64 42)
(240 -5.64 37)
(240 -5.64 38)
(240 -5.64 41)
(240 -5.64 33)
(240 -5.64 34)
(240 -5.64 30)
(240 -5.64 31)
(240 -5.64 32)
(240 -5.64 29)
(240 -5.64 25)
(240 -5.64 21)
(240 -5.64 20)
(240 -5.64 19)
(210 -4.88 0)
(211 -4.79 0)
(207 -4.52 0)
(208 -4.55 0)
(205 -4.33 0)
(206 -4.44 0)
(209 -4.76 0)
(212 -4.66 0)
(217 -4.13 0)
(218 -4.17 0)
(219 -4.32 0)
(220 -4.52 0)
(221 -4.74 0)
(222 -4.86 0)
(223 -4.89 0)
(224 -4.91 0)
(227 -5.52 0)
(228 -5.54 0)
(229 -5.65 0)
(232 -5.9 0)
(240 -5.64 14)
(240 -5.64 17)
(240 -5.64 18)
(240 -5.64 11)
(240 -5.64 10)
(240 -5.64 9)
(240 -5.64 8)
(240 -5.64 7)
(240 -5.64 6)
(240 -5.64 4)
(240 -5.64 5)
(237 -5.87 0)
(234 -6 0)
(233 -5.97 0)
(238 -5.79 0)
(239 -5.73 0)
(240 -5.64 2)
(240 -5.64 3)
(240 -5.64 1)
(122 9.1 157)
(122 9.1 156)
(122 9.1 162)
(122 9.1 161)
(122 9.1 155)
(122 9.1 216)
(122 9.1 215)
(122 9.1 202)
(122 9.1 201)
(122 9.1 224)
(122 9.1 223)
(122 9.1 225)
(122 9.1 77)
(122 9.1 76)
(122 9.1 180)
(122 9.1 179)
(122 9.1 178)
(122 9.1 165)
(122 9.1 164)
(122 9.1 230)
(122 9.1 229)
(122 9.1 208)
(122 9.1 207)
(122 9.1 200)
(122 9.1 196)
(122 9.1 195)
(122 9.1 192)
(122 9.1 191)
(122 9.1 185)
(122 9.1 186)
(122 9.1 235)
(122 9.1 236)
(122 9.1 242)
(122 9.1 241)
(122 9.1 245)
(122 9.1 246)
(122 9.1 248)
(122 9.1 249)
(122 9.1 257)
(122 9.1 258)
(122 9.1 256)
(122 9.1 299)
(122 9.1 298)
(122 9.1 297)
(122 9.1 144)
(122 9.1 143)
(122 9.1 139)
(122 9.1 138)
(122 9.1 148)
(122 9.1 147)
(122 9.1 127)
(122 9.1 126)
(122 9.1 128)
(122 9.1 101)
(122 9.1 102)
(122 9.1 96)
(122 9.1 95)
(122 9.1 75)
(122 9.1 73)
(122 9.1 74)
(122 9.1 85)
(122 9.1 86)
(122 9.1 91)
(122 9.1 90)
(122 9.1 59)
(122 9.1 60)
(122 9.1 42)
(122 9.1 43)
(122 9.1 28)
(122 9.1 29)
(122 9.1 24)
(122 9.1 25)
(122 9.1 170)
(122 9.1 171)
(122 9.1 166)
(122 9.1 174)
(122 9.1 173)
(122 9.1 184)
(122 9.1 183)
(122 9.1 167)
(122 9.1 159)
(122 9.1 160)
(122 9.1 158)
(122 9.1 152)
(122 9.1 151)
(122 9.1 150)
(122 9.1 149)
(122 9.1 153)
(122 9.1 154)
(122 9.1 217)
(122 9.1 218)
(122 9.1 219)
(122 9.1 214)
(122 9.1 213)
(122 9.1 210)
(122 9.1 209)
(122 9.1 212)
(122 9.1 194)
(122 9.1 193)
(122 9.1 190)
(122 9.1 198)
(122 9.1 199)
(122 9.1 206)
(122 9.1 204)
(122 9.1 203)
(122 9.1 232)
(122 9.1 231)
(122 9.1 234)
(122 9.1 226)
(122 9.1 227)
(122 9.1 228)
(122 9.1 233)
(122 9.1 237)
(122 9.1 238)
(122 9.1 239)
(122 9.1 252)
(122 9.1 251)
(122 9.1 250)
(122 9.1 254)
(122 9.1 255)
(122 9.1 261)
(122 9.1 260)
(122 9.1 286)
(122 9.1 287)
(122 9.1 291)
(122 9.1 292)
(122 9.1 294)
(122 9.1 293)
(122 9.1 296)
(122 9.1 284)
(122 9.1 285)
(122 9.1 276)
(122 9.1 275)
(122 9.1 273)
(122 9.1 272)
(122 9.1 281)
(122 9.1 282)
(122 9.1 279)
(122 9.1 278)
(122 9.1 264)
(122 9.1 263)
(122 9.1 266)
(122 9.1 265)
(122 9.1 271)
(122 9.1 274)
(122 9.1 131)
(122 9.1 132)
(122 9.1 136)
(122 9.1 137)
(122 9.1 130)
(122 9.1 116)
(122 9.1 117)
(122 9.1 123)
(122 9.1 122)
(122 9.1 118)
(122 9.1 121)
(122 9.1 124)
(122 9.1 112)
(122 9.1 113)
(122 9.1 100)
(122 9.1 93)
(122 9.1 94)
(122 9.1 103)
(122 9.1 104)
(122 9.1 106)
(122 9.1 105)
(122 9.1 87)
(122 9.1 88)
(122 9.1 92)
(122 9.1 89)
(122 9.1 81)
(122 9.1 80)
(122 9.1 69)
(122 9.1 70)
(122 9.1 71)
(122 9.1 72)
(122 9.1 55)
(122 9.1 56)
(122 9.1 58)
(122 9.1 57)
(122 9.1 62)
(122 9.1 61)
(122 9.1 65)
(122 9.1 66)
(122 9.1 46)
(122 9.1 45)
(122 9.1 54)
(122 9.1 44)
(122 9.1 49)
(122 9.1 48)
(122 9.1 50)
(122 9.1 51)
(122 9.1 53)
(122 9.1 41)
(122 9.1 38)
(122 9.1 39)
(122 9.1 37)
(122 9.1 33)
(122 9.1 34)
(122 9.1 35)
(122 9.1 27)
(122 9.1 19)
(122 9.1 20)
(122 9.1 23)
(122 9.1 30)
(122 9.1 5)
(122 9.1 6)
(122 9.1 11)
(122 9.1 12)
(122 9.1 10)
(122 9.1 14)
(122 9.1 15)
(122 9.1 9)
(122 9.1 8)
(122 9.1 2)
(122 9.1 3)
(122 9.1 4)
(122 9.1 172)
(122 9.1 176)
(122 9.1 177)
(122 9.1 175)
(122 9.1 189)
(122 9.1 188)
(122 9.1 187)
(122 9.1 181)
(122 9.1 182)
(122 9.1 168)
(122 9.1 169)
(122 9.1 163)
(122 9.1 221)
(122 9.1 222)
(122 9.1 220)
(122 9.1 211)
(122 9.1 205)
(122 9.1 197)
(122 9.1 240)
(122 9.1 243)
(122 9.1 244)
(122 9.1 253)
(122 9.1 247)
(122 9.1 259)
(122 9.1 262)
(122 9.1 283)
(122 9.1 288)
(122 9.1 289)
(122 9.1 290)
(122 9.1 295)
(122 9.1 277)
(122 9.1 280)
(122 9.1 270)
(122 9.1 269)
(122 9.1 267)
(122 9.1 268)
(122 9.1 146)
(122 9.1 134)
(122 9.1 133)
(122 9.1 135)
(122 9.1 142)
(122 9.1 141)
(122 9.1 140)
(122 9.1 145)
(122 9.1 115)
(122 9.1 119)
(122 9.1 129)
(122 9.1 125)
(122 9.1 120)
(122 9.1 114)
(122 9.1 109)
(122 9.1 108)
(122 9.1 107)
(122 9.1 98)
(122 9.1 97)
(122 9.1 99)
(122 9.1 110)
(122 9.1 111)
(122 9.1 78)
(122 9.1 83)
(122 9.1 82)
(122 9.1 84)
(122 9.1 79)
(122 9.1 68)
(122 9.1 67)
(122 9.1 63)
(122 9.1 64)
(122 9.1 40)
(122 9.1 47)
(122 9.1 52)
(122 9.1 36)
(122 9.1 31)
(122 9.1 32)
(122 9.1 22)
(122 9.1 26)
(122 9.1 21)
(122 9.1 17)
(122 9.1 18)
(122 9.1 1)
(122 9.1 7)
(122 9.1 16)
(122 9.1 13)
)


// edges:

1480
(
(1180 1181)
(1182 1183)
(1181 1184)
(1185 1186)
(1187 1188)
(1189 1190)
(1189 1191)
(1192 1193)
(1194 1195)
(1195 1196)
(1197 1198)
(1199 1200)
(1201 1202)
(1203 1188)
(1204 1205)
(1206 1207)
(1208 1209)
(1210 1211)
(1212 1213)
(1214 1215)
(1216 1217)
(1218 1219)
(1218 1220)
(0 1221)
(1222 1223)
(1224 1225)
(1226 1227)
(1228 1229)
(1230 1231)
(1232 1230)
(1233 1234)
(1235 1236)
(1237 1193)
(1238 1239)
(1240 1241)
(1242 1243)
(1244 1245)
(1246 1247)
(1248 1249)
(1250 1251)
(1252 1253)
(1197 1254)
(1255 1256)
(1208 1257)
(1258 1257)
(1259 1254)
(1260 1261)
(1262 1180)
(1263 1264)
(1265 1264)
(1228 1266)
(1267 1268)
(1269 1185)
(1270 1271)
(1272 1273)
(1270 1269)
(1272 1186)
(1274 1275)
(1273 1276)
(1277 1278)
(1279 1207)
(1280 1281)
(1282 1202)
(1283 1284)
(1285 1286)
(1287 1210)
(1288 1289)
(1286 1199)
(1200 1290)
(1285 1291)
(1211 1292)
(1293 1294)
(1295 1296)
(1296 1297)
(1298 1299)
(1297 1217)
(1300 1301)
(1302 1303)
(1304 1305)
(1306 1307)
(1221 1222)
(1223 1308)
(1309 1310)
(1311 1312)
(1313 1314)
(1315 1316)
(1317 1318)
(1319 1320)
(1321 1322)
(1323 1314)
(1324 1312)
(1325 1326)
(1327 1328)
(1325 1329)
(1330 1331)
(1332 1333)
(1331 1334)
(1333 1335)
(1336 1332)
(1337 1338)
(1233 1339)
(1340 1341)
(1342 1343)
(1344 1345)
(1346 1347)
(1242 1348)
(1349 1347)
(1350 1351)
(1237 1239)
(1352 1353)
(1354 1355)
(1356 1357)
(1358 1359)
(1360 1361)
(1362 1363)
(1364 1365)
(1366 1356)
(1365 1367)
(1368 1369)
(1370 1371)
(1366 1372)
(1373 1246)
(1374 1375)
(1367 1247)
(1374 1376)
(1377 1378)
(1379 1378)
(1380 1248)
(1381 1382)
(1383 1250)
(1384 1249)
(1385 1386)
(1387 1388)
(1387 1389)
(1390 1391)
(1392 1393)
(1394 1395)
(1396 1385)
(1253 1397)
(1398 1399)
(1255 1400)
(1401 1402)
(1403 1402)
(1194 1404)
(1258 1405)
(1404 1405)
(1209 1403)
(1279 1401)
(1398 1400)
(1196 1399)
(1256 1397)
(1406 1259)
(1183 1261)
(1407 1252)
(1407 1406)
(1182 1408)
(1408 1198)
(1267 1263)
(1184 1268)
(1260 1262)
(1409 1410)
(1190 1410)
(1409 1411)
(1411 1271)
(1274 1412)
(1275 1201)
(1412 1276)
(1413 1283)
(1280 1414)
(1414 1204)
(1206 1278)
(1277 1205)
(1203 1281)
(1284 1187)
(1413 1282)
(1287 1291)
(1191 1288)
(1290 1289)
(1213 1415)
(1294 1415)
(1416 1212)
(1214 1417)
(1293 1292)
(1295 1418)
(1215 1419)
(1419 1216)
(1417 1416)
(1219 1420)
(1421 1300)
(1421 1320)
(1420 1301)
(1299 1220)
(1418 1298)
(1316 1422)
(1309 1422)
(1423 1424)
(1424 1425)
(1425 1304)
(1308 1426)
(1306 1426)
(1305 1307)
(1423 1303)
(1302 1310)
(1311 1427)
(1428 1315)
(1317 1428)
(1318 1427)
(1313 1324)
(1429 1430)
(1323 1429)
(1321 1431)
(1430 1432)
(1431 1432)
(1319 1322)
(1265 1266)
(1229 1433)
(1434 1435)
(1436 1327)
(1437 1438)
(1439 1438)
(1227 1328)
(1439 1226)
(1436 1434)
(1225 1437)
(1433 1440)
(1440 1224)
(1441 1330)
(1442 1334)
(1435 1326)
(1443 1232)
(1329 1443)
(1444 1231)
(1336 1444)
(1442 1445)
(1335 1445)
(1441 1446)
(1446 1338)
(1447 1448)
(1448 1449)
(1449 1344)
(1343 1345)
(1450 1451)
(1451 1235)
(1339 1452)
(1342 1234)
(1450 1452)
(1453 1447)
(1453 1454)
(1454 1337)
(1192 1455)
(1456 1457)
(1350 1457)
(1349 1243)
(1241 1346)
(1456 1458)
(1348 1340)
(1236 1341)
(1240 1458)
(1455 1459)
(1351 1459)
(1352 1460)
(1238 1355)
(1460 1461)
(1361 1245)
(1462 1360)
(1362 1463)
(1462 1463)
(1461 1363)
(1359 1357)
(1358 1244)
(1354 1353)
(1464 1375)
(1373 1464)
(1364 1465)
(1466 1372)
(1368 1370)
(1371 1466)
(1465 1369)
(1467 1376)
(1379 1467)
(1468 1469)
(1383 1470)
(1471 1251)
(1471 1380)
(1470 1472)
(1382 1472)
(1473 1474)
(1468 1384)
(1469 1377)
(1394 1475)
(2 1475)
(1396 1395)
(1393 1476)
(1386 1476)
(1381 1474)
(1477 1473)
(1477 1391)
(1388 1478)
(1478 1390)
(1389 1392)
(6 7)
(8 9)
(10 11)
(12 13)
(14 15)
(16 17)
(18 19)
(20 21)
(22 23)
(24 25)
(26 27)
(28 29)
(30 31)
(32 33)
(34 35)
(36 37)
(38 39)
(40 41)
(42 43)
(44 45)
(46 44)
(47 48)
(49 50)
(51 52)
(53 54)
(55 56)
(57 58)
(59 60)
(61 59)
(62 63)
(64 65)
(66 67)
(68 69)
(70 71)
(72 73)
(74 75)
(76 77)
(78 79)
(80 81)
(82 83)
(84 85)
(86 87)
(88 89)
(90 91)
(92 93)
(94 95)
(96 97)
(98 99)
(100 101)
(102 40)
(103 104)
(105 106)
(107 108)
(106 109)
(108 110)
(111 112)
(113 114)
(7 115)
(116 117)
(118 119)
(120 118)
(121 120)
(122 123)
(124 125)
(45 126)
(127 128)
(129 130)
(131 132)
(133 134)
(135 136)
(136 137)
(138 139)
(140 141)
(142 143)
(143 140)
(144 145)
(146 49)
(50 144)
(145 147)
(148 149)
(150 151)
(149 152)
(153 154)
(155 156)
(157 158)
(159 160)
(161 162)
(163 164)
(165 163)
(166 167)
(168 166)
(169 51)
(167 169)
(170 171)
(172 173)
(19 174)
(175 176)
(177 178)
(179 180)
(181 182)
(183 184)
(185 186)
(187 188)
(63 189)
(190 191)
(192 193)
(194 195)
(196 197)
(198 199)
(200 196)
(201 202)
(202 203)
(204 201)
(205 206)
(207 205)
(208 209)
(210 211)
(212 213)
(214 215)
(215 216)
(217 218)
(219 220)
(69 221)
(222 70)
(223 224)
(225 1)
(224 226)
(227 223)
(228 229)
(230 231)
(232 233)
(234 235)
(236 237)
(238 236)
(239 240)
(241 242)
(243 24)
(244 245)
(246 247)
(248 249)
(27 250)
(251 252)
(253 254)
(255 253)
(256 257)
(258 259)
(260 0)
(261 30)
(262 261)
(263 264)
(265 266)
(267 268)
(269 270)
(271 272)
(273 274)
(275 276)
(277 278)
(279 280)
(79 281)
(282 283)
(284 80)
(81 78)
(285 284)
(286 287)
(288 289)
(290 291)
(292 293)
(294 292)
(295 296)
(297 298)
(299 300)
(301 302)
(303 301)
(304 305)
(306 307)
(308 82)
(309 310)
(311 34)
(312 313)
(314 315)
(310 316)
(317 318)
(319 309)
(320 321)
(322 323)
(324 322)
(325 324)
(326 327)
(328 329)
(330 331)
(37 330)
(332 333)
(334 332)
(335 336)
(337 334)
(338 339)
(339 340)
(341 342)
(343 341)
(344 345)
(346 347)
(348 349)
(350 351)
(351 352)
(353 354)
(355 2)
(356 357)
(358 359)
(360 361)
(362 363)
(364 362)
(365 38)
(366 94)
(367 366)
(368 369)
(370 371)
(372 370)
(373 374)
(375 376)
(377 373)
(378 377)
(379 380)
(381 382)
(383 384)
(385 386)
(387 381)
(388 383)
(389 390)
(391 392)
(393 394)
(395 396)
(397 398)
(399 400)
(401 402)
(403 3)
(3 12)
(404 98)
(99 403)
(13 405)
(405 100)
(101 406)
(406 407)
(407 408)
(408 409)
(410 404)
(41 410)
(411 102)
(412 411)
(104 412)
(413 103)
(414 413)
(15 414)
(415 14)
(416 415)
(409 417)
(417 105)
(109 107)
(110 418)
(419 111)
(418 419)
(112 420)
(420 421)
(421 422)
(422 423)
(423 424)
(424 425)
(425 426)
(426 113)
(114 427)
(427 42)
(43 428)
(428 16)
(17 46)
(429 430)
(430 416)
(431 429)
(432 431)
(433 432)
(434 435)
(435 433)
(436 434)
(115 436)
(437 6)
(438 437)
(439 438)
(440 439)
(441 440)
(442 441)
(443 442)
(444 443)
(445 444)
(48 445)
(446 47)
(447 446)
(448 447)
(449 450)
(450 448)
(451 449)
(452 451)
(453 452)
(454 453)
(117 454)
(119 116)
(455 121)
(456 455)
(457 456)
(458 459)
(459 457)
(460 458)
(123 460)
(461 122)
(462 463)
(463 461)
(464 462)
(465 466)
(466 464)
(467 465)
(125 467)
(468 124)
(469 468)
(470 469)
(126 471)
(471 472)
(472 473)
(473 474)
(474 475)
(475 476)
(476 129)
(130 477)
(477 478)
(478 479)
(479 127)
(128 480)
(480 481)
(481 133)
(134 131)
(132 482)
(482 483)
(483 484)
(484 485)
(485 486)
(486 487)
(487 488)
(488 489)
(489 490)
(490 135)
(491 492)
(137 491)
(492 493)
(493 494)
(494 495)
(496 138)
(495 497)
(497 496)
(139 142)
(141 498)
(498 146)
(147 499)
(499 500)
(501 148)
(500 501)
(152 150)
(151 502)
(502 503)
(503 153)
(154 504)
(504 505)
(505 155)
(156 506)
(506 507)
(507 157)
(158 508)
(508 509)
(509 159)
(160 510)
(510 511)
(511 512)
(512 513)
(513 514)
(514 515)
(515 516)
(516 517)
(517 518)
(518 519)
(520 521)
(519 522)
(522 520)
(521 523)
(523 161)
(162 524)
(524 525)
(525 165)
(164 168)
(52 526)
(526 527)
(528 529)
(527 530)
(530 528)
(531 470)
(171 531)
(54 170)
(532 53)
(533 532)
(534 533)
(535 534)
(173 535)
(536 172)
(537 536)
(538 537)
(539 538)
(540 539)
(541 540)
(542 543)
(544 541)
(543 544)
(545 542)
(546 547)
(548 545)
(547 548)
(549 546)
(178 549)
(550 177)
(176 550)
(174 175)
(551 18)
(552 551)
(553 552)
(554 553)
(555 554)
(556 557)
(557 555)
(558 556)
(559 558)
(560 559)
(180 561)
(561 560)
(562 179)
(563 562)
(564 563)
(565 564)
(566 565)
(567 566)
(182 567)
(568 181)
(569 568)
(56 569)
(570 571)