/*--------------------------------*- C++ -*----------------------------------*\
  =========                 |
  \\      /  F ield         | OpenFOAM: The Open Source CFD Toolbox
   \\    /   O peration     | Website:  https://openfoam.org
    \\  /    A nd           | Version:  10
     \\/     M anipulation  |
\*---------------------------------------------------------------------------*/
FoamFile
{
    format      ascii;
    class       extendedFeatureEdgeMesh;
    location    "constant/extendedFeatureEdgeMesh";
    object      ground.extendedFeatureEdgeMesh;
}
// * * * * * * * * * * * * * * * * * * * * * * * * * * * * * * * * * * * * * //

// points

396
(
(-10 -10 0)
(266.667 -5 0)
(-10 -10 100)
(266.667 -5 100)
(-7.20539 -10 0)
(-10 -10 1.0101)
(-4.41077 -10 0)
(-1.61616 -10 0)
(1.17845 -10 0)
(3.97306 -10 0)
(6.76768 -10 0)
(9.56229 -10 0)
(12.3569 -10 0)
(15.1515 -10 0)
(17.9461 -10 0)
(20.7407 -10 0)
(23.5354 -10 0)
(26.33 -10 0)
(29.1246 -10 0)
(31.9192 -10 0)
(34.7138 -10 0)
(37.5084 -10 0)
(40.303 -9.9697 0)
(43.0976 -9.69024 0)
(45.8923 -9.41077 0)
(48.6869 -9.13131 0)
(51.4815 -8.85185 0)
(54.2761 -8.57239 0)
(57.0707 -8.29293 0)
(59.8653 -8.01347 0)
(62.6599 -7.73401 0)
(65.4545 -7.45455 0)
(68.2492 -7.17508 0)
(71.0438 -6.65556 0)
(73.8384 -5.73333 0)
(76.633 -4.81111 0)
(79.4276 -3.88889 0)
(82.2222 -2.96667 0)
(85.0168 -2.04444 0)
(87.8114 -1.12222 0)
(90.6061 -0.2 0)
(93.4007 0.722222 0)
(96.1953 1.64444 0)
(98.9899 2.56667 0)
(101.785 3.48889 0)
(104.579 4.41111 0)
(107.374 5.33333 0)
(110.168 6.25556 0)
(112.963 7.17778 0)
(115.758 8.1 0)
(118.552 9.02222 0)
(121.347 9.94444 0)
(124.141 10.8667 0)
(126.936 11.7889 0)
(129.731 12.7111 0)
(132.525 13.6333 0)
(135.32 14.5556 0)
(138.114 15 0)
(140.909 15 0)
(143.704 15 0)
(146.498 15 0)
(149.293 15 0)
(152.088 15 0)
(154.882 15 0)
(157.677 14.6633 0)
(160.471 13.7318 0)
(163.266 12.8002 0)
(166.061 11.8687 0)
(168.855 10.9371 0)
(171.65 10.0056 0)
(174.444 9.07407 0)
(177.239 8.14254 0)
(180.034 7.211 0)
(182.828 6.27946 0)
(185.623 5.34792 0)
(188.418 4.41639 0)
(191.212 3.48485 0)
(194.007 2.55331 0)
(196.801 1.62177 0)
(199.596 0.690236 0)
(202.391 -0.241302 0)
(205.185 -1.17284 0)
(207.98 -2.10438 0)
(210.774 -3.03591 0)
(213.569 -3.96745 0)
(216.364 -4.89899 0)
(219.158 -5 0)
(221.953 -5 0)
(224.747 -5 0)
(227.542 -5 0)
(230.337 -5 0)
(233.131 -5 0)
(235.926 -5 0)
(238.721 -5 0)
(241.515 -5 0)
(244.31 -5 0)
(247.104 -5 0)
(249.899 -5 0)
(252.694 -5 0)
(255.488 -5 0)
(258.283 -5 0)
(261.077 -5 0)
(263.872 -5 0)
(266.667 -5 1.0101)
(-10 -10 2.0202)
(266.667 -5 2.0202)
(-10 -10 3.0303)
(266.667 -5 3.0303)
(-10 -10 4.0404)
(266.667 -5 4.0404)
(-10 -10 5.05051)
(266.667 -5 5.05051)
(-10 -10 6.06061)
(266.667 -5 6.06061)
(-10 -10 7.07071)
(266.667 -5 7.07071)
(-10 -10 8.08081)
(266.667 -5 8.08081)
(-10 -10 9.09091)
(266.667 -5 9.09091)
(-10 -10 10.101)
(266.667 -5 10.101)
(-10 -10 11.1111)
(266.667 -5 11.1111)
(-10 -10 12.1212)
(266.667 -5 12.1212)
(-10 -10 13.1313)
(266.667 -5 13.1313)
(-10 -10 14.1414)
(266.667 -5 14.1414)
(-10 -10 15.1515)
(266.667 -5 15.1515)
(-10 -10 16.1616)
(266.667 -5 16.1616)
(-10 -10 17.1717)
(266.667 -5 17.1717)
(-10 -10 18.1818)
(266.667 -5 18.1818)
(-10 -10 19.1919)
(266.667 -5 19.1919)
(-10 -10 20.202)
(266.667 -5 20.202)
(-10 -10 21.2121)
(266.667 -5 21.2121)
(-10 -10 22.2222)
(266.667 -5 22.2222)
(-10 -10 23.2323)
(266.667 -5 23.2323)
(-10 -10 24.2424)
(266.667 -5 24.2424)
(-10 -10 25.2525)
(266.667 -5 25.2525)
(-10 -10 26.2626)
(266.667 -5 26.2626)
(-10 -10 27.2727)
(266.667 -5 27.2727)
(-10 -10 28.2828)
(266.667 -5 28.2828)
(-10 -10 29.2929)
(266.667 -5 29.2929)
(-10 -10 30.303)
(266.667 -5 30.303)
(-10 -10 31.3131)
(266.667 -5 31.3131)
(-10 -10 32.3232)
(266.667 -5 32.3232)
(-10 -10 33.3333)
(266.667 -5 33.3333)
(-10 -10 34.3434)
(266.667 -5 34.3434)
(-10 -10 35.3535)
(266.667 -5 35.3535)
(-10 -10 36.3636)
(266.667 -5 36.3636)
(-10 -10 37.3737)
(266.667 -5 37.3737)
(-10 -10 38.3838)
(266.667 -5 38.3838)
(-10 -10 39.3939)
(266.667 -5 39.3939)
(-10 -10 40.404)
(266.667 -5 40.404)
(-10 -10 41.4141)
(266.667 -5 41.4141)
(-10 -10 42.4242)
(266.667 -5 42.4242)
(-10 -10 43.4343)
(266.667 -5 43.4343)
(-10 -10 44.4444)
(266.667 -5 44.4444)
(-10 -10 45.4545)
(266.667 -5 45.4545)
(-10 -10 46.4646)
(266.667 -5 46.4646)
(-10 -10 47.4747)
(266.667 -5 47.4747)
(-10 -10 48.4848)
(266.667 -5 48.4848)
(-10 -10 49.4949)
(266.667 -5 49.4949)
(-10 -10 50.5051)
(266.667 -5 50.5051)
(-10 -10 51.5152)
(266.667 -5 51.5152)
(-10 -10 52.5253)
(266.667 -5 52.5253)
(-10 -10 53.5354)
(266.667 -5 53.5354)
(-10 -10 54.5455)
(266.667 -5 54.5455)
(-10 -10 55.5556)
(266.667 -5 55.5556)
(-10 -10 56.5657)
(266.667 -5 56.5657)
(-10 -10 57.5758)
(266.667 -5 57.5758)
(-10 -10 58.5859)
(266.667 -5 58.5859)
(-10 -10 59.596)
(266.667 -5 59.596)
(-10 -10 60.6061)
(266.667 -5 60.6061)
(-10 -10 61.6162)
(266.667 -5 61.6162)
(-10 -10 62.6263)
(266.667 -5 62.6263)
(-10 -10 63.6364)
(266.667 -5 63.6364)
(-10 -10 64.6465)
(266.667 -5 64.6465)
(-10 -10 65.6566)
(266.667 -5 65.6566)
(-10 -10 66.6667)
(266.667 -5 66.6667)
(-10 -10 67.6768)
(266.667 -5 67.6768)
(-10 -10 68.6869)
(266.667 -5 68.6869)
(-10 -10 69.697)
(266.667 -5 69.697)
(-10 -10 70.7071)
(266.667 -5 70.7071)
(-10 -10 71.7172)
(266.667 -5 71.7172)
(-10 -10 72.7273)
(266.667 -5 72.7273)
(-10 -10 73.7374)
(266.667 -5 73.7374)
(-10 -10 74.7475)
(266.667 -5 74.7475)
(-10 -10 75.7576)
(266.667 -5 75.7576)
(-10 -10 76.7677)
(266.667 -5 76.7677)
(-10 -10 77.7778)
(266.667 -5 77.7778)
(-10 -10 78.7879)
(266.667 -5 78.7879)
(-10 -10 79.798)
(266.667 -5 79.798)
(-10 -10 80.8081)
(266.667 -5 80.8081)
(-10 -10 81.8182)
(266.667 -5 81.8182)
(-10 -10 82.8283)
(266.667 -5 82.8283)
(-10 -10 83.8384)
(266.667 -5 83.8384)
(-10 -10 84.8485)
(266.667 -5 84.8485)
(-10 -10 85.8586)
(266.667 -5 85.8586)
(-10 -10 86.8687)
(266.667 -5 86.8687)
(-10 -10 87.8788)
(266.667 -5 87.8788)
(-10 -10 88.8889)
(266.667 -5 88.8889)
(-10 -10 89.899)
(266.667 -5 89.899)
(-10 -10 90.9091)
(266.667 -5 90.9091)
(-10 -10 91.9192)
(266.667 -5 91.9192)
(-10 -10 92.9293)
(266.667 -5 92.9293)
(-10 -10 93.9394)
(266.667 -5 93.9394)
(-10 -10 94.9495)
(266.667 -5 94.9495)
(-10 -10 95.9596)
(266.667 -5 95.9596)
(-10 -10 96.9697)
(266.667 -5 96.9697)
(-10 -10 97.9798)
(266.667 -5 97.9798)
(-10 -10 98.9899)
(266.667 -5 98.9899)
(-7.20539 -10 100)
(-4.41077 -10 100)
(-1.61616 -10 100)
(1.17845 -10 100)
(3.97306 -10 100)
(6.76768 -10 100)
(9.56229 -10 100)
(12.3569 -10 100)
(15.1515 -10 100)
(17.9461 -10 100)
(20.7407 -10 100)
(23.5354 -10 100)
(26.33 -10 100)
(29.1246 -10 100)
(31.9192 -10 100)
(34.7138 -10 100)
(37.5084 -10 100)
(40.303 -9.9697 100)
(43.0976 -9.69024 100)
(45.8923 -9.41077 100)
(48.6869 -9.13131 100)
(51.4815 -8.85185 100)
(54.2761 -8.57239 100)
(57.0707 -8.29293 100)
(59.8653 -8.01347 100)
(62.6599 -7.73401 100)
(65.4545 -7.45455 100)
(68.2492 -7.17508 100)
(71.0438 -6.65556 100)
(73.8384 -5.73333 100)
(76.633 -4.81111 100)
(79.4276 -3.88889 100)
(82.2222 -2.96667 100)
(85.0168 -2.04444 100)
(87.8114 -1.12222 100)
(90.6061 -0.2 100)
(93.4007 0.722222 100)
(96.1953 1.64444 100)
(98.9899 2.56667 100)
(101.785 3.48889 100)
(104.579 4.41111 100)
(107.374 5.33333 100)
(110.168 6.25556 100)
(112.963 7.17778 100)
(115.758 8.1 100)
(118.552 9.02222 100)
(121.347 9.94444 100)
(124.141 10.8667 100)
(126.936 11.7889 100)
(129.731 12.7111 100)
(132.525 13.6333 100)
(135.32 14.5556 100)
(138.114 15 100)
(140.909 15 100)
(143.704 15 100)
(146.498 15 100)
(149.293 15 100)
(152.088 15 100)
(154.882 15 100)
(157.677 14.6633 100)
(160.471 13.7318 100)
(163.266 12.8002 100)
(166.061 11.8687 100)
(168.855 10.9371 100)
(171.65 10.0056 100)
(174.444 9.07407 100)
(177.239 8.14254 100)
(180.034 7.211 100)
(182.828 6.27946 100)
(185.623 5.34792 100)
(188.418 4.41639 100)
(191.212 3.48485 100)
(194.007 2.55331 100)
(196.801 1.62177 100)
(199.596 0.690236 100)
(202.391 -0.241302 100)
(205.185 -1.17284 100)
(207.98 -2.10438 100)
(210.774 -3.03591 100)
(213.569 -3.96745 100)
(216.364 -4.89899 100)
(219.158 -5 100)
(221.953 -5 100)
(224.747 -5 100)
(227.542 -5 100)
(230.337 -5 100)
(233.131 -5 100)
(235.926 -5 100)
(238.721 -5 100)
(241.515 -5 100)
(244.31 -5 100)
(247.104 -5 100)
(249.899 -5 100)
(252.694 -5 100)
(255.488 -5 100)
(258.283 -5 100)
(261.077 -5 100)
(263.872 -5 100)
)

// edges

396
(
(0 4)
(5 0)
(4 6)
(6 7)
(7 8)
(8 9)
(9 10)
(10 11)
(11 12)
(12 13)
(13 14)
(14 15)
(15 16)
(16 17)
(17 18)
(18 19)
(19 20)
(20 21)
(21 22)
(22 23)
(23 24)
(24 25)
(25 26)
(26 27)
(27 28)
(28 29)
(29 30)
(30 31)
(31 32)
(32 33)
(33 34)
(34 35)
(35 36)
(36 37)
(37 38)
(38 39)
(39 40)
(40 41)
(41 42)
(42 43)
(43 44)
(44 45)
(45 46)
(46 47)
(47 48)
(48 49)
(49 50)
(50 51)
(51 52)
(52 53)
(53 54)
(54 55)
(55 56)
(56 57)
(57 58)
(58 59)
(59 60)
(60 61)
(61 62)
(62 63)
(63 64)
(64 65)
(65 66)
(66 67)
(67 68)
(68 69)
(69 70)
(70 71)
(71 72)
(72 73)
(73 74)
(74 75)
(75 76)
(76 77)
(77 78)
(78 79)
(79 80)
(80 81)
(81 82)
(82 83)
(83 84)
(84 85)
(85 86)
(86 87)
(87 88)
(88 89)
(89 90)
(90 91)
(91 92)
(92 93)
(93 94)
(94 95)
(95 96)
(96 97)
(97 98)
(98 99)
(99 100)
(100 101)
(101 102)
(102 1)
(1 103)
(104 5)
(103 105)
(106 104)
(105 107)
(108 106)
(107 109)
(110 108)
(109 111)
(112 110)
(111 113)
(114 112)
(113 115)
(116 114)
(115 117)
(118 116)
(117 119)
(120 118)
(119 121)
(122 120)
(121 123)
(124 122)
(123 125)
(126 124)
(125 127)
(128 126)
(127 129)
(130 128)
(129 131)
(132 130)
(131 133)
(134 132)
(133 135)
(136 134)
(135 137)
(138 136)
(137 139)
(140 138)
(139 141)
(142 140)
(141 143)
(144 142)
(143 145)
(146 144)
(145 147)
(148 146)
(147 149)
(150 148)
(149 151)
(152 150)
(151 153)
(154 152)
(153 155)
(156 154)
(155 157)
(158 156)
(157 159)
(160 158)
(159 161)
(162 160)
(161 163)
(164 162)
(163 165)
(166 164)
(165 167)
(168 166)
(167 169)
(170 168)
(169 171)
(172 170)
(171 173)
(174 172)
(173 175)
(176 174)
(175 177)
(178 176)
(177 179)
(180 178)
(179 181)
(182 180)
(181 183)
(184 182)
(183 185)
(186 184)
(185 187)
(188 186)
(187 189)
(190 188)
(189 191)
(192 190)
(191 193)
(194 192)
(193 195)
(196 194)
(195 197)
(198 196)
(197 199)
(200 198)
(199 201)
(202 200)
(201 203)
(204 202)
(203 205)
(206 204)
(205 207)
(208 206)
(207 209)
(210 208)
(209 211)
(212 210)
(211 213)
(214 212)
(213 215)
(216 214)
(215 217)
(218 216)
(217 219)
(220 218)
(219 221)
(222 220)
(221 223)
(224 222)
(223 225)
(226 224)
(225 227)
(228 226)
(227 229)
(230 228)
(229 231)
(232 230)
(231 233)
(234 232)
(233 235)
(236 234)
(235 237)
(238 236)
(237 239)
(240 238)
(239 241)
(242 240)
(241 243)
(244 242)
(243 245)
(246 244)
(245 247)
(248 246)
(247 249)
(250 248)
(249 251)
(252 250)
(251 253)
(254 252)
(253 255)
(256 254)
(255 257)
(258 256)
(257 259)
(260 258)
(259 261)
(262 260)
(261 263)
(264 262)
(263 265)
(266 264)
(265 267)
(268 266)
(267 269)
(270 268)
(269 271)
(272 270)
(271 273)
(274 272)
(273 275)
(276 274)
(275 277)
(278 276)
(277 279)
(280 278)
(279 281)
(282 280)
(281 283)
(284 282)
(283 285)
(286 284)
(285 287)
(288 286)
(287 289)
(290 288)
(289 291)
(292 290)
(291 293)
(294 292)
(293 295)
(296 294)
(295 297)
(298 2)
(2 296)
(299 298)
(300 299)
(301 300)
(302 301)
(303 302)
(304 303)
(305 304)
(306 305)
(307 306)
(308 307)
(309 308)
(310 309)
(311 310)
(312 311)
(313 312)
(314 313)
(315 314)
(316 315)
(317 316)
(318 317)
(319 318)
(320 319)
(321 320)
(322 321)
(323 322)
(324 323)
(325 324)
(326 325)
(327 326)
(328 327)
(329 328)
(330 329)
(331 330)
(332 331)
(333 332)
(334 333)
(335 334)
(336 335)
(337 336)
(338 337)
(339 338)
(340 339)
(341 340)
(342 341)
(343 342)
(344 343)
(345 344)
(346 345)
(347 346)
(348 347)
(349 348)
(350 349)
(351 350)
(352 351)
(353 352)
(354 353)
(355 354)
(356 355)
(357 356)
(358 357)
(359 358)
(360 359)
(361 360)
(362 361)
(363 362)
(364 363)
(365 364)
(366 365)
(367 366)
(368 367)
(369 368)
(370 369)
(371 370)
(372 371)
(373 372)
(374 373)
(375 374)
(376 375)
(377 376)
(378 377)
(379 378)
(380 379)
(381 380)
(382 381)
(383 382)
(384 383)
(385 384)
(386 385)
(387 386)
(388 387)
(389 388)
(390 389)
(391 390)
(392 391)
(393 392)
(394 393)
(395 394)
(297 3)
(3 395)
)

// concaveStart mixedStart nonFeatureStart
0 0 4
// internalStart flatStart openStart multipleStart
0 0 0 396
// normals

394
(
(0 -1 0)
(-0 -1 0)
(0 -1 0)
(0 -1 0)
(0 -1 0)
(0 -1 0)
(0 -1 0)
(0 -1 0)
(0 -1 0)
(0 -1 0)
(0 -1 0)
(0 -1 0)
(0 -1 0)
(0 -1 0)
(0 -1 0)
(0 -1 0)
(0 -1 0)
(0 -1 0)
(0.0108427 -0.999941 0)
(0.0995036 -0.995037 0)
(0.0995039 -0.995037 0)
(0.0995036 -0.995037 0)
(0.0995041 -0.995037 0)
(0.0995036 -0.995037 0)
(0.0995036 -0.995037 0)
(0.0995039 -0.995037 0)
(0.0995036 -0.995037 0)
(0.0995038 -0.995037 0)
(0.0995036 -0.995037 0)
(0.182772 -0.983155 0)
(0.313377 -0.949629 0)
(0.313378 -0.949629 0)
(0.313377 -0.949629 0)
(0.313378 -0.949629 0)
(0.313377 -0.949629 0)
(0.313378 -0.949629 0)
(0.313377 -0.949629 0)
(0.313378 -0.949629 0)
(0.313377 -0.949629 0)
(0.313378 -0.949629 0)
(0.313377 -0.949629 0)
(0.313378 -0.949629 0)
(0.313377 -0.949629 0)
(0.313378 -0.949629 0)
(0.313378 -0.949629 0)
(0.313377 -0.949629 0)
(0.313378 -0.949629 0)
(0.313377 -0.949629 0)
(0.313378 -0.949629 0)
(0.313377 -0.949629 0)
(0.313378 -0.949629 0)
(0.313377 -0.949629 0)
(0.313377 -0.949629 0)
(0.157063 -0.987589 0)
(0 -1 0)
(0 -1 0)
(0 -1 0)
(0 -1 0)
(0 -1 0)
(0 -1 0)
(-0.119617 -0.99282 0)
(-0.316229 -0.948683 0)
(-0.316227 -0.948683 0)
(-0.316227 -0.948683 0)
(-0.316227 -0.948683 0)
(-0.316229 -0.948683 0)
(-0.316227 -0.948683 0)
(-0.316227 -0.948683 0)
(-0.316227 -0.948683 0)
(-0.316229 -0.948683 0)
(-0.316227 -0.948683 0)
(-0.316227 -0.948683 0)
(-0.316227 -0.948683 0)
(-0.316229 -0.948683 0)
(-0.316227 -0.948683 0)
(-0.316227 -0.948683 0)
(-0.316227 -0.948683 0)
(-0.316229 -0.948683 0)
(-0.316227 -0.948683 0)
(-0.316227 -0.948683 0)
(-0.316227 -0.948683 0)
(-0.316229 -0.948683 0)
(-0.036121 -0.999347 0)
(0 -1 0)
(0 -1 0)
(0 -1 0)
(0 -1 0)
(0 -1 0)
(0 -1 0)
(0 -1 0)
(0 -1 0)
(0 -1 0)
(0 -1 0)
(0 -1 0)
(0 -1 0)
(0 -1 0)
(0 -1 0)
(0 -1 0)
(0 -1 0)
(0 -1 0)
(-0 -1 0)
(0 -1 0)
(-0 -1 0)
(0 -1 0)
(-0 -1 0)
(0 -1 0)
(-0 -1 0)
(0 -1 0)
(-0 -1 0)
(0 -1 0)
(-0 -1 0)
(0 -1 0)
(-0 -1 0)
(0 -1 0)
(-0 -1 0)
(0 -1 0)
(-0 -1 0)
(0 -1 0)
(-0 -1 0)
(0 -1 0)
(-0 -1 0)
(0 -1 0)
(-0 -1 0)
(0 -1 0)
(-0 -1 0)
(0 -1 0)
(-0 -1 0)
(0 -1 0)
(-0 -1 0)
(0 -1 0)
(-0 -1 0)
(0 -1 0)
(-0 -1 0)
(0 -1 0)
(-0 -1 0)
(0 -1 0)
(-0 -1 0)
(0 -1 0)
(-0 -1 0)
(0 -1 0)
(-0 -1 0)
(0 -1 0)
(-0 -1 0)
(0 -1 0)
(-0 -1 0)
(0 -1 0)
(-0 -1 0)
(0 -1 0)
(-0 -1 0)
(0 -1 0)
(-0 -1 0)
(0 -1 0)
(-0 -1 0)
(0 -1 0)
(-0 -1 0)
(0 -1 0)
(-0 -1 0)
(0 -1 0)
(-0 -1 0)
(0 -1 0)
(-0 -1 0)
(0 -1 0)
(-0 -1 0)
(0 -1 0)
(-0 -1 0)
(0 -1 0)
(-0 -1 0)
(0 -1 0)
(-0 -1 0)
(0 -1 0)
(-0 -1 0)
(0 -1 0)
(-0 -1 0)
(0 -1 0)
(-0 -1 0)
(0 -1 0)
(-0 -1 0)
(0 -1 0)
(-0 -1 0)
(0 -1 0)
(-0 -1 0)
(0 -1 0)
(-0 -1 0)
(0 -1 0)
(-0 -1 0)
(0 -1 0)
(-0 -1 0)
(0 -1 0)
(-0 -1 0)
(0 -1 0)
(-0 -1 0)
(0 -1 0)
(-0 -1 0)
(0 -1 0)
(-0 -1 0)
(0 -1 0)
(-0 -1 0)
(0 -1 0)
(-0 -1 0)
(0 -1 0)
(-0 -1 0)
(0 -1 0)
(-0 -1 0)
(0 -1 0)
(-0 -1 0)
(0 -1 0)
(-0 -1 0)
(0 -1 0)
(-0 -1 0)
(0 -1 0)
(-0 -1 0)
(0 -1 0)
(-0 -1 0)
(0 -1 0)
(-0 -1 0)
(0 -1 0)
(-0 -1 0)
(0 -1 0)
(-0 -1 0)
(0 -1 0)
(-0 -1 0)
(0 -1 0)
(-0 -1 0)
(0 -1 0)
(-0 -1 0)
(0 -1 0)
(-0 -1 0)
(0 -1 0)
(-0 -1 0)
(0 -1 0)
(-0 -1 0)
(0 -1 0)
(-0 -1 0)
(0 -1 0)
(-0 -1 0)
(0 -1 0)
(-0 -1 0)
(0 -1 0)
(-0 -1 0)
(0 -1 0)
(-0 -1 0)
(0 -1 0)
(-0 -1 0)
(0 -1 0)
(-0 -1 0)
(0 -1 0)
(-0 -1 0)
(0 -1 0)
(-0 -1 0)
(0 -1 0)
(-0 -1 0)
(0 -1 0)
(-0 -1 0)
(0 -1 0)
(-0 -1 0)
(0 -1 0)
(-0 -1 0)
(0 -1 0)
(-0 -1 0)
(0 -1 0)
(-0 -1 0)
(0 -1 0)
(-0 -1 0)
(0 -1 0)
(-0 -1 0)
(0 -1 0)
(-0 -1 0)
(0 -1 0)
(-0 -1 0)
(0 -1 0)
(-0 -1 0)
(0 -1 0)
(-0 -1 0)
(0 -1 0)
(-0 -1 0)
(0 -1 0)
(-0 -1 0)
(0 -1 0)
(-0 -1 0)
(0 -1 0)
(-0 -1 0)
(0 -1 0)
(-0 -1 0)
(0 -1 0)
(-0 -1 0)
(0 -1 0)
(-0 -1 0)
(0 -1 0)
(-0 -1 0)
(0 -1 0)
(-0 -1 0)
(0 -1 0)
(-0 -1 0)
(0 -1 0)
(-0 -1 0)
(-0 -1 0)
(-0 -1 0)
(-0 -1 0)
(-0 -1 0)
(-0 -1 0)
(-0 -1 0)
(-0 -1 0)
(-0 -1 0)
(-0 -1 0)
(-0 -1 0)
(-0 -1 0)
(-0 -1 0)
(-0 -1 0)
(-0 -1 0)
(-0 -1 0)
(-0 -1 0)
(0.0108427 -0.999941 0)
(0.0995036 -0.995037 0)
(0.0995039 -0.995037 0)
(0.0995036 -0.995037 0)
(0.0995041 -0.995037 0)
(0.0995036 -0.995037 0)
(0.0995036 -0.995037 0)
(0.0995039 -0.995037 0)
(0.0995036 -0.995037 0)
(0.0995038 -0.995037 0)
(0.0995036 -0.995037 0)
(0.182772 -0.983155 0)
(0.313377 -0.949629 0)
(0.313378 -0.949629 0)
(0.313377 -0.949629 0)
(0.313378 -0.949629 0)
(0.313377 -0.949629 0)
(0.313378 -0.949629 0)
(0.313377 -0.949629 0)
(0.313378 -0.949629 0)
(0.313377 -0.949629 0)
(0.313378 -0.949629 0)
(0.313377 -0.949629 0)
(0.313378 -0.949629 0)
(0.313377 -0.949629 0)
(0.313378 -0.949629 0)
(0.313378 -0.949629 0)
(0.313377 -0.949629 0)
(0.313378 -0.949629 0)
(0.313377 -0.949629 0)
(0.313378 -0.949629 0)
(0.313377 -0.949629 0)
(0.313378 -0.949629 0)
(0.313377 -0.949629 0)
(0.313377 -0.949629 0)
(0.157063 -0.987589 0)
(-0 -1 0)
(-0 -1 0)
(-0 -1 0)
(-0 -1 0)
(-0 -1 0)
(-0 -1 0)
(-0.119617 -0.99282 0)
(-0.316229 -0.948683 0)
(-0.316227 -0.948683 0)
(-0.316227 -0.948683 0)
(-0.316227 -0.948683 0)
(-0.316229 -0.948683 0)
(-0.316227 -0.948683 0)
(-0.316227 -0.948683 0)
(-0.316227 -0.948683 0)
(-0.316229 -0.948683 0)
(-0.316227 -0.948683 0)
(-0.316227 -0.948683 0)
(-0.316227 -0.948683 0)
(-0.316229 -0.948683 0)
(-0.316227 -0.948683 0)
(-0.316227 -0.948683 0)
(-0.316227 -0.948683 0)
(-0.316229 -0.948683 0)
(-0.316227 -0.948683 0)
(-0.316227 -0.948683 0)
(-0.316227 -0.948683 0)
(-0.316229 -0.948683 0)
(-0.036121 -0.999347 0)
(-0 -1 0)
(-0 -1 0)
(-0 -1 0)
(-0 -1 0)
(-0 -1 0)
(-0 -1 0)
(-0 -1 0)
(-0 -1 0)
(-0 -1 0)
(-0 -1 0)
(-0 -1 0)
(-0 -1 0)
(-0 -1 0)
(-0 -1 0)
(-0 -1 0)
(-0 -1 0)
(0 -1 0)
(-0 -1 0)
)

// normal volume types

394
(
0
0
0
0
0
0
0
0
0
0
0
0
0
0
0
0
0
0
0
0
0
0
0
0
0
0
0
0
0
0
0
0
0
0
0
0
0
0
0
0
0
0
0
0
0
0
0
0
0
0
0
0
0
0
0
0
0
0
0
0
0
0
0
0
0
0
0
0
0
0
0
0
0
0
0
0
0
0
0
0
0
0
0
0
0
0
0
0
0
0
0
0
0
0
0
0
0
0
0
0
0
0
0
0
0
0
0
0
0
0
0
0
0
0
0
0
0
0
0
0
0
0
0
0
0
0
0
0
0
0
0
0
0
0
0
0
0
0
0
0
0
0
0
0
0
0
0
0
0
0
0
0
0
0
0
0
0
0
0
0
0
0
0
0
0
0
0
0
0
0
0
0
0
0
0
0
0
0
0
0
0
0
0
0
0
0
0
0
0
0
0
0
0
0
0
0
0
0
0
0
0
0
0
0
0
0
0
0
0
0
0
0
0
0
0
0
0
0
0
0
0
0
0
0
0
0
0
0
0
0
0
0
0
0
0
0
0
0
0
0
0
0
0
0
0
0
0
0
0
0
0
0
0
0
0
0
0
0
0
0
0
0
0
0
0
0
0
0
0
0
0
0
0
0
0
0
0
0
0
0
0
0
0
0
0
0
0
0
0
0
0
0
0
0
0
0
0
0
0
0
0
0
0
0
0
0
0
0
0
0
0
0
0
0
0
0
0
0
0
0
0
0
0
0
0
0
0
0
0
0
0
0
0
0
0
0
0
0
0
0
0
0
0
0
0
0
0
0
0
0
0
0
0
0
0
0
0
0
0
0
0
0
0
0
0
0
0
0
0
0
0
0
0
0
0
0
0
0
0
0
0
0
0
0
0
0
0
0
0
0
0
0
0
0
)

// normalDirections

396
(
1(1)
1(1)
1(1)
1(1)
1(1)
1(1)
1(1)
1(1)
1(1)
1(1)
1(1)
1(1)
1(1)
1(1)
1(1)
1(1)
1(1)
1(1)
1(1)
1(1)
1(1)
1(1)
1(1)
1(1)
1(1)
1(1)
1(1)
1(1)
1(1)
1(1)
1(1)
1(1)
1(1)
1(1)
1(1)
1(1)
1(1)
1(1)
1(1)
1(1)
1(1)
1(1)
1(1)
1(1)
1(1)
1(1)
1(1)
1(1)
1(1)
1(1)
1(1)
1(1)
1(1)
1(1)
1(1)
1(1)
1(1)
1(1)
1(1)
1(1)
1(1)
1(1)
1(1)
1(1)
1(1)
1(1)
1(1)
1(1)
1(1)
1(1)
1(1)
1(1)
1(1)
1(1)
1(1)
1(1)
1(1)
1(1)
1(1)
1(1)
1(1)
1(1)
1(1)
1(1)
1(1)
1(1)
1(1)
1(1)
1(1)
1(1)
1(1)
1(1)
1(1)
1(1)
1(1)
1(1)
1(1)
1(1)
1(1)
1(1)
1(1)
1(1)
1(1)
1(1)
1(1)
1(1)
1(1)
1(1)
1(1)
1(1)
1(1)
1(1)
1(1)
1(1)
1(1)
1(1)
1(1)
1(1)
1(1)
1(1)
1(1)
1(1)
1(1)
1(1)
1(1)
1(1)
1(1)
1(1)
1(1)
1(1)
1(1)
1(1)
1(1)
1(1)
1(1)
1(1)
1(1)
1(1)
1(1)
1(1)
1(1)
1(1)
1(1)
1(1)
1(1)
1(1)
1(1)
1(1)
1(1)
1(1)
1(1)
1(1)
1(1)
1(1)
1(1)
1(1)
1(1)
1(1)
1(1)
1(1)
1(1)
1(1)
1(1)
1(1)
1(1)
1(1)
1(1)
1(1)
1(1)
1(1)
1(1)
1(1)
1(1)
1(1)
1(1)
1(1)
1(1)
1(1)
1(1)
1(1)
1(1)
1(1)
1(1)
1(1)
1(1)
1(1)
1(1)
1(1)
1(1)
1(1)
1(1)
1(1)
1(1)
1(1)
1(1)
1(1)
1(1)
1(1)
1(1)
1(1)
1(1)
1(1)
1(1)
1(1)
1(1)
1(1)
1(1)
1(1)
1(1)
1(1)
1(1)
1(1)
1(1)
1(1)
1(1)
1(1)
1(1)
1(1)
1(1)
1(1)
1(1)
1(1)
1(1)
1(1)
1(1)
1(1)
1(1)
1(1)
1(1)
1(1)
1(1)
1(1)
1(1)
1(1)
1(1)
1(1)
1(1)
1(1)
1(1)
1(1)
1(1)
1(1)
1(1)
1(1)
1(1)
1(1)
1(1)
1(1)
1(1)
1(1)
1(1)
1(1)
1(1)
1(1)
1(1)
1(1)
1(1)
1(1)
1(1)
1(1)
1(1)
1(1)
1(1)
1(1)
1(1)
1(1)
1(1)
1(1)
1(1)
1(1)
1(1)
1(1)
1(1)
1(1)
1(1)
1(1)
1(1)
1(1)
1(1)
1(1)
1(1)
1(1)
1(1)
1(1)
1(1)
1(1)
1(1)
1(1)
1(1)
1(1)
1(1)
1(1)
1(1)
1(1)
1(1)
1(1)
1(1)
1(1)
1(1)
1(1)
1(1)
1(1)
1(1)
1(1)
1(1)
1(1)
1(1)
1(1)
1(1)
1(1)
1(1)
1(1)
1(1)
1(1)
1(1)
1(1)
1(1)
1(1)
1(1)
1(1)
1(1)
1(1)
1(1)
1(1)
1(1)
1(1)
1(1)
1(1)
1(1)
1(1)
1(1)
1(1)
1(1)
1(1)
1(1)
1(1)
1(1)
1(1)
1(1)
1(1)
1(1)
1(1)
1(1)
1(1)
1(1)
1(1)
1(1)
1(1)
1(1)
1(1)
1(1)
1(1)
1(1)
1(1)
1(1)
1(1)
1(1)
1(1)
1(1)
1(1)
1(1)
1(1)
1(1)
1(1)
1(1)
1(1)
1(1)
1(1)
1(1)
1(1)
1(1)
1(1)
1(1)
1(1)
1(1)
1(1)
1(1)
1(1)
1(1)
1(1)
1(1)
1(1)
1(1)
1(1)
1(1)
1(1)
1(1)
1(1)
1(1)
1(1)
1(1)
1(1)
1(1)
1(1)
1(1)
1(1)
)

// edgeNormals

396
(
1(0)
1(1)
1(2)
1(3)
1(4)
1(5)
1(6)
1(7)
1(8)
1(9)
1(10)
1(11)
1(12)
1(13)
1(14)
1(15)
1(16)
1(17)
1(18)
1(19)
1(20)
1(21)
1(22)
1(23)
1(24)
1(25)
1(26)
1(27)
1(28)
1(29)
1(30)
1(31)
1(32)
1(33)
1(34)
1(35)
1(36)
1(37)
1(38)
1(39)
1(40)
1(41)
1(42)
1(43)
1(44)
1(45)
1(46)
1(47)
1(48)
1(49)
1(50)
1(51)
1(52)
1(53)
1(54)
1(55)
1(56)
1(57)
1(58)
1(59)
1(60)
1(61)
1(62)
1(63)
1(64)
1(65)
1(66)
1(67)
1(68)
1(69)
1(70)
1(71)
1(72)
1(73)
1(74)
1(75)
1(76)
1(77)
1(78)
1(79)
1(80)
1(81)
1(82)
1(83)
1(84)
1(85)
1(86)
1(87)
1(88)
1(89)
1(90)
1(91)
1(92)
1(93)
1(94)
1(95)
1(96)
1(97)
1(98)
1(99)
1(99)
1(100)
1(101)
1(102)
1(103)
1(104)
1(105)
1(106)
1(107)
1(108)
1(109)
1(110)
1(111)
1(112)
1(113)
1(114)
1(115)
1(116)
1(117)
1(118)
1(119)
1(120)
1(121)
1(122)
1(123)
1(124)
1(125)
1(126)
1(127)
1(128)
1(129)
1(130)
1(131)
1(132)
1(133)
1(134)
1(135)
1(136)
1(137)
1(138)
1(139)
1(140)
1(141)
1(142)
1(143)
1(144)
1(145)
1(146)
1(147)
1(148)
1(149)
1(150)
1(151)
1(152)
1(153)
1(154)
1(155)
1(156)
1(157)
1(158)
1(159)
1(160)
1(161)
1(162)
1(163)
1(164)
1(165)
1(166)
1(167)
1(168)
1(169)
1(170)
1(171)
1(172)
1(173)
1(174)
1(175)
1(176)
1(177)
1(178)
1(179)
1(180)
1(181)
1(182)
1(183)
1(184)
1(185)
1(186)
1(187)
1(188)
1(189)
1(190)
1(191)
1(192)
1(193)
1(194)
1(195)
1(196)
1(197)
1(198)
1(199)
1(200)
1(201)
1(202)
1(203)
1(204)
1(205)
1(206)
1(207)
1(208)
1(209)
1(210)
1(211)
1(212)
1(213)
1(214)
1(215)
1(216)
1(217)
1(218)
1(219)
1(220)
1(221)
1(222)
1(223)
1(224)
1(225)
1(226)
1(227)
1(228)
1(229)
1(230)
1(231)
1(232)
1(233)
1(234)
1(235)
1(236)
1(237)
1(238)
1(239)
1(240)
1(241)
1(242)
1(243)
1(244)
1(245)
1(246)
1(247)
1(248)
1(249)
1(250)
1(251)
1(252)
1(253)
1(254)
1(255)
1(256)
1(257)
1(258)
1(259)
1(260)
1(261)
1(262)
1(263)
1(264)
1(265)
1(266)
1(267)
1(268)
1(269)
1(270)
1(271)
1(272)
1(273)
1(274)
1(275)
1(276)
1(277)
1(278)
1(279)
1(280)
1(281)
1(282)
1(283)
1(284)
1(285)
1(286)
1(287)
1(288)
1(289)
1(290)
1(291)
1(292)
1(293)
1(294)
1(294)
1(295)
1(296)
1(297)
1(298)
1(299)
1(300)
1(301)
1(302)
1(303)
1(304)
1(305)
1(306)
1(307)
1(308)
1(309)
1(310)
1(311)
1(312)
1(313)
1(314)
1(315)
1(316)
1(317)
1(318)
1(319)
1(320)
1(321)
1(322)
1(323)
1(324)
1(325)
1(326)
1(327)
1(328)
1(329)
1(330)
1(331)
1(332)
1(333)
1(334)
1(335)
1(336)
1(337)
1(338)
1(339)
1(340)
1(341)
1(342)
1(343)
1(344)
1(345)
1(346)
1(347)
1(348)
1(349)
1(350)
1(351)
1(352)
1(353)
1(354)
1(355)
1(356)
1(357)
1(358)
1(359)
1(360)
1(361)
1(362)
1(363)
1(364)
1(365)
1(366)
1(367)
1(368)
1(369)
1(370)
1(371)
1(372)
1(373)
1(374)
1(375)
1(376)
1(377)
1(378)
1(379)
1(380)
1(381)
1(382)
1(383)
1(384)
1(385)
1(386)
1(387)
1(388)
1(389)
1(390)
1(391)
1(392)
1(393)
)

// featurePointNormals

4
(
1(0)
1(99)
1(294)
1(392)
)

// featurePointEdges

4
(
2(0 1)
2(99 100)
2(295 296)
2(394 395)
)

// regionEdges

396
(
0
1
2
3
4
5
6
7
8
9
10
11
12
13
14
15
16
17
18
19
20
21
22
23
24
25
26
27
28
29
30
31
32
33
34
35
36
37
38
39
40
41
42
43
44
45
46
47
48
49
50
51
52
53
54
55
56
57
58
59
60
61
62
63
64
65
66
67
68
69
70
71
72
73
74
75
76
77
78
79
80
81
82
83
84
85
86
87
88
89
90
91
92
93
94
95
96
97
98
99
100
101
102
103
104
105
106
107
108
109
110
111
112
113
114
115
116
117
118
119
120
121
122
123
124
125
126
127
128
129
130
131
132
133
134
135
136
137
138
139
140
141
142
143
144
145
146
147
148
149
150
151
152
153
154
155
156
157
158
159
160
161
162
163
164
165
166
167
168
169
170
171
172
173
174
175
176
177
178
179
180
181
182
183
184
185
186
187
188
189
190
191
192
193
194
195
196
197
198
199
200
201
202
203
204
205
206
207
208
209
210
211
212
213
214
215
216
217
218
219
220
221
222
223
224
225
226
227
228
229
230
231
232
233
234
235
236
237
238
239
240
241
242
243
244
245
246
247
248
249
250
251
252
253
254
255
256
257
258
259
260
261
262
263
264
265
266
267
268
269
270
271
272
273
274
275
276
277
278
279
280
281
282
283
284
285
286
287
288
289
290
291
292
293
294
295
296
297
298
299
300
301
302
303
304
305
306
307
308
309
310
311
312
313
314
315
316
317
318
319
320
321
322
323
324
325
326
327
328
329
330
331
332
333
334
335
336
337
338
339
340
341
342
343
344
345
346
347
348
349
350
351
352
353
354
355
356
357
358
359
360
361
362
363
364
365
366
367
368
369
370
371
372
373
374
375
376
377
378
379
380
381
382
383
384
385
386
387
388
389
390
391
392
393
394
395
)



// ************************************************************************* //
